businput300.m
busdata=[   1.0000    2.0000    1.0000    0.9000    0.4900         0         0         0         0         0;
            2.0000    2.0000    1.0000    0.5600    0.1500         0         0         0         0         0;
            3.0000    2.0000    1.0000    0.2000         0         0         0         0         0         0;
            4.0000    2.0000    1.0000         0         0         0         0         0         0         0;
            5.0000    2.0000    1.0000    3.5300    1.3000         0         0         0         0         0;
            6.0000    2.0000    1.0000    1.2000    0.4100         0         0         0         0         0;
            7.0000    2.0000    1.0000         0         0         0         0         0         0         0;
            8.0000    3.0000    1.0153    0.5800    0.1400   -0.0500         0   -0.1000    0.1000         0;
            9.0000    2.0000    1.0000    0.9600    0.4300         0         0         0         0         0;
           10.0000    3.0000    1.0205    1.4800    0.3300   -0.0500         0   -0.2000    0.2000         0;
           11.0000    2.0000    1.0000    0.8300    0.2100         0         0         0         0         0;
           12.0000    2.0000    1.0000         0         0         0         0         0         0         0;
           13.0000    2.0000    1.0000    0.5800    0.1000         0         0         0         0         0;
           14.0000    2.0000    1.0000    1.6000    0.6000         0         0         0         0         0;
           15.0000    2.0000    1.0000    1.2670    0.2300         0         0         0         0         0;
           16.0000    2.0000    1.0000         0         0         0         0         0         0         0;
           17.0000    2.0000    1.0000    5.6100    2.2000         0         0         0         0         0;
           18.0000    2.0000    1.0000         0         0         0         0         0         0         0;
           19.0000    3.0000    1.0010    5.9500    1.2000   -0.1000         0   -0.2000    0.2000         0;
           20.0000    2.0000    1.0000    0.7700    0.0100         0         0         0         0         0;
           21.0000    2.0000    1.0000    0.8100    0.2300         0         0         0         0         0;
           22.0000    2.0000    1.0000    0.2100    0.0700         0         0         0         0         0;
           23.0000    2.0000    1.0000         0         0         0         0         0         0         0;
           24.0000    2.0000    1.0000    0.4500    0.1200         0         0         0         0         0;
           25.0000    2.0000    1.0000    0.2800    0.0900         0         0         0         0         0;
           26.0000    2.0000    1.0000    0.6900    0.1300         0         0         0         0         0;
           27.0000    2.0000    1.0000    0.5500    0.0600         0         0         0         0         0;
           28.0000    2.0000    1.0000         0         0         0         0         0         0         0;
           29.0000    2.0000    1.0000         0         0         0         0         0         0         0;
           30.0000    2.0000    1.0000         0         0         0         0         0         0         0;
           31.0000    2.0000    1.0000    0.8500    0.3200         0         0         0         0         0;
           32.0000    2.0000    1.0000    1.5500    0.1800         0         0         0         0         0;
           33.0000    2.0000    1.0000         0         0         0         0         0         0         0;
           34.0000    2.0000    1.0000    0.4600   -0.2100         0         0         0         0         0;
           35.0000    2.0000    1.0000    0.8600         0         0         0         0         0         0;
           36.0000    2.0000    1.0000         0         0         0         0         0         0         0;
           37.0000    2.0000    1.0000    0.3900    0.0900         0         0         0         0         0;
           38.0000    2.0000    1.0000    1.9500    0.2900         0         0         0         0         0;
           39.0000    2.0000    1.0000         0         0         0         0         0         0         0;
           40.0000    2.0000    1.0000         0         0         0         0         0         0         0;
           41.0000    2.0000    1.0000    0.5800    0.1180         0         0         0         0         0;
           42.0000    2.0000    1.0000    0.4100    0.1900         0         0         0         0         0;
           43.0000    2.0000    1.0000    0.9200    0.2600         0         0         0         0         0;
           44.0000    2.0000    1.0000   -0.0500    0.0500         0         0         0         0         0;
           45.0000    2.0000    1.0000    0.6100    0.2800         0         0         0         0         0;
           46.0000    2.0000    1.0000    0.6900    0.0300         0         0         0         0         0;
           47.0000    2.0000    1.0000    0.1000    0.0100         0         0         0         0         0;
           48.0000    2.0000    1.0000    0.2200    0.1000         0         0         0         0         0;
           49.0000    2.0000    1.0000    0.9800    0.2000         0         0         0         0         0;
           50.0000    2.0000    1.0000    0.1400    0.0100         0         0         0         0         0;
           51.0000    2.0000    1.0000    2.1800    1.0600         0         0         0         0         0;
           52.0000    2.0000    1.0000         0         0         0         0         0         0         0;
           53.0000    2.0000    1.0000    2.2700    1.1000         0         0         0         0         0;
           54.0000    2.0000    1.0000         0         0         0         0         0         0         0;
           55.0000    3.0000    0.9583    0.7000    0.3000         0         0   -0.2500    0.2500         0;
           56.0000    2.0000    1.0000         0         0         0         0         0         0         0;
           57.0000    2.0000    1.0000         0         0         0         0         0         0         0;
           58.0000    2.0000    1.0000    0.5600    0.2000         0         0         0         0         0;
           59.0000    2.0000    1.0000    1.1600    0.3800         0         0         0         0         0;
           60.0000    2.0000    1.0000    0.5700    0.1900         0         0         0         0         0;
           61.0000    2.0000    1.0000    2.2400    0.7100         0         0         0         0         0;
           62.0000    2.0000    1.0000         0         0         0         0         0         0         0;
           63.0000    3.0000    0.9632    2.0800    1.0700         0         0    0.1200    0.3500         0;
           64.0000    2.0000    1.0000    0.7400    0.2800         0         0         0         0         0;
           65.0000    2.0000    1.0000         0         0         0         0         0         0         0;
           66.0000    2.0000    1.0000    0.4800    0.1400         0         0         0         0         0;
           67.0000    2.0000    1.0000    0.2800    0.0700         0         0         0         0         0;
           68.0000    2.0000    1.0000         0         0         0         0         0         0         0;
           69.0000    3.0000    1.0250    0.3700    0.1300    3.7500         0   -2.4000    2.4000         0;
           70.0000    2.0000    1.0000         0         0         0         0         0         0         0;
           71.0000    2.0000    1.0000         0         0         0         0         0         0         0;
           72.0000    2.0000    1.0000         0         0         0         0         0         0         0;
           73.0000    2.0000    1.0000         0         0         0         0         0         0         0;
           74.0000    2.0000    1.0000    0.4420         0         0         0         0         0         0;
           75.0000    2.0000    1.0000    0.6600         0         0         0         0         0         0;
           76.0000    3.0000    1.0520    0.1740         0    1.5500         0   -0.1100    0.9600         0;
           77.0000    3.0000    1.0520    0.1580         0    2.9000         0   -1.5300    1.5300         0;
           78.0000    2.0000    1.0000    0.6030         0         0         0         0         0         0;
           79.0000    2.0000    1.0000    0.3990         0         0         0         0         0         0;
           80.0000    3.0000    1.0000    0.6670         0    0.6800         0   -0.3000    0.5600         0;
           81.0000    2.0000    1.0000    0.8350         0         0         0         0         0         0;
           82.0000    2.0000    1.0000         0         0         0         0         0         0         0;
           83.0000    2.0000    1.0000    0.7780         0         0         0         0         0         0;
           84.0000    2.0000    1.0000    0.3200         0         0         0         0         0         0;
           85.0000    2.0000    1.0000    0.0860         0         0         0         0         0         0;
           86.0000    2.0000    1.0000    0.4960         0         0         0         0         0         0;
           87.0000    2.0000    1.0000    0.0460         0         0         0         0         0         0;
           88.0000    3.0000    0.9900    1.1210         0    1.1700         0   -0.2400    0.7700         0;
           89.0000    2.0000    1.0000    0.3070         0         0         0         0         0         0;
           90.0000    2.0000    1.0000    0.6300         0         0         0         0         0         0;
           91.0000    2.0000    1.0000    0.1960         0         0         0         0         0         0;
           92.0000    2.0000    1.0000    0.2620         0         0         0         0         0         0;
           93.0000    2.0000    1.0000    0.1820         0         0         0         0         0         0;
           94.0000    2.0000    1.0000         0         0         0         0         0         0         0;
           95.0000    2.0000    1.0000         0         0         0         0         0         0         0;
           96.0000    2.0000    1.0000         0         0         0         0         0         0    3.2500;
           97.0000    2.0000    1.0000    0.1410    6.5000         0         0         0         0         0;
           98.0000    3.0000    1.0435         0         0   19.3000         0   -5.0000   15.0000         0;
           99.0000    2.0000    1.0000    7.7700    2.1500         0         0         0         0    0.5500;
          100.0000    2.0000    1.0000    5.3500    0.5500         0         0         0         0         0;
          101.0000    2.0000    1.0000    2.2910    0.1180         0         0         0         0         0;
          102.0000    2.0000    1.0000    0.7800    0.0140         0         0         0         0         0;
          103.0000    3.0000    1.0233    2.7640    0.5930    2.4000         0   -0.6000    1.2000         0;
          104.0000    3.0000    1.0103    5.1480    0.8270         0         0   -0.2500    2.0000         0;
          105.0000    2.0000    1.0000    0.5790    0.0510         0         0         0         0         0;
          106.0000    2.0000    1.0000    3.8080    0.3700         0         0         0         0         0;
          107.0000    2.0000    1.0000         0         0         0         0         0         0         0;
          108.0000    2.0000    1.0000         0         0         0         0         0         0         0;
          109.0000    2.0000    1.0000         0         0         0         0         0         0         0;
          110.0000    2.0000    1.0000         0         0         0         0         0         0         0;
          111.0000    2.0000    1.0000         0         0         0         0         0         0         0;
          112.0000    2.0000    1.0000         0         0         0         0         0         0         0;
          113.0000    2.0000    1.0000         0         0         0         0         0         0         0;
          114.0000    2.0000    1.0000    1.6920    0.4160         0         0         0         0         0;
          115.0000    2.0000    1.0000    0.5520    0.1820         0         0         0         0         0;
          116.0000    2.0000    1.0000    2.7360    0.9980         0         0         0         0         0;
          117.0000    3.0000    1.0550    8.2670    1.3520   -1.9250         0   -1.2500    3.5000         0;
          118.0000    2.0000    1.0000    5.9500    0.8330         0         0         0         0         0;
          119.0000    2.0000    1.0000    3.8770    1.1470         0         0         0         0         0;
          120.0000    3.0000    1.0510    1.4500    0.5800    2.8100         0   -0.5000    0.7500         0;
          121.0000    2.0000    1.0000    0.5650    0.2450         0         0         0         0         0;
          122.0000    3.0000    1.0435    0.8950    0.3550    6.9600         0   -1.0000    3.0000         0;
          123.0000    2.0000    1.0000         0         0         0         0         0         0         0;
          124.0000    2.0000    1.0000    0.2400    0.1400         0         0         0         0         0;
          125.0000    3.0000    1.0528         0         0    0.8400         0   -0.1500    0.3500         0;
          126.0000    3.0000    1.0528         0         0    2.1700         0   -0.5000    1.0000         0;
          127.0000    2.0000    1.0000    0.6300    0.2500         0         0         0         0         0;
          128.0000    3.0000    1.0735         0         0    1.0300         0   -0.2500    0.5000         0;
          129.0000    2.0000    1.0000         0         0         0         0         0         0         0;
          130.0000    2.0000    1.0000         0         0         0         0         0         0         0;
          131.0000    3.0000    1.0535    0.1700    0.0900    3.7200         0   -0.5000    1.7500         0;
          132.0000    3.0000    1.0435         0         0    2.1600         0   -0.5000    0.9000         0;
          133.0000    2.0000    1.0000    0.7000    0.0500         0         0         0         0    0.3450;
          134.0000    2.0000    1.0000    2.0000    0.5000         0         0         0         0         0;
          135.0000    3.0000    0.9630    0.7500    0.5000         0         0   -0.1000    0.1500         0;
          136.0000    2.0000    1.0000    1.2350   -0.2430         0         0         0         0         0;
          137.0000    2.0000    1.0000         0         0         0         0         0         0         0;
          138.0000    2.0000    1.0000    0.3300    0.1650         0         0         0         0         0;
          139.0000    2.0000    1.0000         0         0         0         0         0         0         0;
          140.0000    2.0000    1.0000    0.3500    0.1500         0         0         0         0         0;
          141.0000    2.0000    1.0000    0.8500    0.2400         0         0         0         0         0;
          142.0000    2.0000    1.0000         0    0.0040         0         0         0         0         0;
          143.0000    2.0000    1.0000         0         0         0         0         0         0   -2.1200;
          144.0000    2.0000    1.0000         0         0         0         0         0         0         0;
          145.0000    2.0000    1.0000         0         0         0         0         0         0   -1.0300;
          146.0000    2.0000    1.0000    2.9990    0.9570         0         0         0         0         0;
          147.0000    2.0000    1.0000         0         0         0         0         0         0         0;
          148.0000    2.0000    1.0000         0         0         0         0         0         0         0;
          149.0000    3.0000    0.9290    4.8180    2.0500    2.0500         0   -0.4000    0.9000         0;
          150.0000    3.0000    0.9829    7.6360    2.9110         0         0   -0.5000    1.5000         0;
          151.0000    2.0000    1.0000    0.2650         0         0         0         0         0         0;
          152.0000    2.0000    1.0000    1.6350    0.4300         0         0         0         0    0.5300;
          153.0000    2.0000    1.0000         0         0         0         0         0         0         0;
          154.0000    2.0000    1.0000    1.7600    0.8300         0         0         0         0         0;
          155.0000    3.0000    1.0522    0.0500    0.0400    2.2800         0   -0.4500    0.9000         0;
          156.0000    3.0000    1.0077    0.2800    0.1200    0.8400         0   -0.1500    0.3500         0;
          157.0000    2.0000    1.0000    4.2740    1.7360         0         0         0         0         0;
          158.0000    2.0000    1.0000    0.7400    0.2900         0         0         0         0    0.4500;
          159.0000    2.0000    1.0000    0.6950    0.4930         0         0         0         0         0;
          160.0000    2.0000    1.0000    0.7340         0         0         0         0         0         0;
          161.0000    2.0000    1.0000    2.4070    0.8900         0         0         0         0         0;
          162.0000    2.0000    1.0000    0.4000    0.0400         0         0         0         0         0;
          163.0000    2.0000    1.0000    1.3680    0.1660         0         0         0         0         0;
          164.0000    3.0000    1.0522         0         0    2.0000         0   -0.5000    0.8000         0;
          165.0000    3.0000    1.0650    0.5980    0.2430   12.0000         0   -1.0000    4.0000         0;
          166.0000    3.0000    1.0650    0.5980    0.2430   12.0000         0   -1.0000    4.0000         0;
          167.0000    2.0000    1.0000    1.8260    0.4360         0         0         0         0         0;
          168.0000    2.0000    1.0000    0.0700    0.0200         0         0         0         0         0;
          169.0000    3.0000    1.0551         0         0    4.7500         0   -3.0000    3.0000   -1.5000;
          170.0000    3.0000    1.0435    4.8900    0.5300   19.7300         0  -10.0000   10.0000         0;
          171.0000    2.0000    1.0000    8.0000    0.7200         0         0         0         0         0;
          172.0000    2.0000    1.0000         0         0         0         0         0         0         0;
          173.0000    2.0000    1.0000         0         0         0         0         0         0         0;
          174.0000    2.0000    1.0000         0         0         0         0         0         0         0;
          175.0000    2.0000    1.0000    0.1000    0.0300         0         0         0         0         0;
          176.0000    2.0000    1.0000    0.4300    0.1400         0         0         0         0         0;
          177.0000    3.0000    1.0150    0.6400    0.2100    4.2400         0   -2.6000    2.6000         0;
          178.0000    2.0000    1.0000    0.3500    0.1200         0         0         0         0         0;
          179.0000    2.0000    1.0000    0.2700    0.1200         0         0         0         0         0;
          180.0000    2.0000    1.0000    0.4100    0.1400         0         0         0         0         0;
          181.0000    2.0000    1.0000    0.3800    0.1300         0         0         0         0         0;
          182.0000    2.0000    1.0000    0.4200    0.1400         0         0         0         0         0;
          183.0000    2.0000    1.0000    0.7200    0.2400         0         0         0         0         0;
          184.0000    2.0000    1.0000         0   -0.0500         0         0         0         0         0;
          185.0000    2.0000    1.0000    0.1200    0.0200         0         0         0         0         0;
          186.0000    2.0000    1.0000   -0.2100   -0.1420         0         0         0         0         0;
          187.0000    2.0000    1.0000    0.0700    0.0200         0         0         0         0         0;
          188.0000    2.0000    1.0000    0.3800    0.1300         0         0         0         0         0;
          189.0000    2.0000    1.0000         0         0         0         0         0         0         0;
          190.0000    2.0000    1.0000    0.9600    0.0700         0         0         0         0         0;
          191.0000    2.0000    1.0000         0         0         0         0         0         0         0;
          192.0000    3.0000    1.0100         0         0    2.7200         0   -1.5000    1.5000         0;
          193.0000    2.0000    1.0000    0.2200    0.1600         0         0         0         0         0;
          194.0000    2.0000    1.0000    0.4700    0.2600         0         0         0         0         0;
          195.0000    2.0000    1.0000    1.7600    1.0500         0         0         0         0         0;
          196.0000    2.0000    1.0000    1.0000    0.7500         0         0         0         0         0;
          197.0000    2.0000    1.0000    1.3100    0.9600         0         0         0         0         0;
          198.0000    2.0000    1.0000         0         0         0         0         0         0         0;
          199.0000    3.0000    1.0080    2.8500    1.0000    1.0000         0   -0.6000    0.6000         0;
          200.0000    3.0000    1.0000    1.7100    0.7000    4.5000         0   -3.2000    3.2000         0;
          201.0000    3.0000    1.0500    3.2800    1.8800    2.5000         0   -3.0000    3.0000         0;
...


linedata=[      1.0000   31.0000  266.0000    0.0001    0.0005         0    1.0082;
                2.0000  266.0000  270.0000    0.0008    0.0035         0    1.0000;
                3.0000  266.0000  271.0000    0.0244    0.4368         0    0.9668;
                4.0000  266.0000  273.0000    0.0362    0.6490         0    0.9796;
                5.0000  270.0000  292.0000    0.0158    0.3749         0    1.0435;
                6.0000  270.0000  293.0000    0.0158    0.3749         0    0.9391;
                7.0000  270.0000  294.0000    0.0160    0.3805         0    1.0435;
                8.0000  270.0000  295.0000         0    0.1520         0    1.0435;
                9.0000  270.0000  296.0000         0    0.8000         0    1.0435;
               10.0000  271.0000  272.0000    0.0556    0.2467         0    1.0000;
               11.0000  271.0000  268.0000    0.1112    0.4933         0    1.0000;
               12.0000  271.0000  268.0000    0.1112    0.4933         0    1.0000;
               13.0000  273.0000  267.0000    0.0762    0.4329         0    1.0000;
               14.0000  273.0000  267.0000    0.0762    0.4329         0    1.0000;
               15.0000  267.0000  274.0000    0.0537    0.0703         0    1.0000;
               16.0000  274.0000  276.0000    1.1068    0.9528         0    1.0000;
               17.0000  274.0000  275.0000    0.4436    2.8152         0    1.0000;
               18.0000  267.0000  277.0000    0.5075    3.2202         0    1.0000;
               19.0000  276.0000  278.0000    0.6669    3.9440         0    1.0000;
               20.0000  276.0000  279.0000    0.6113    3.6152         0    1.0000;
               21.0000  272.0000  297.0000    0.4412    2.9668         0    1.0000;
               22.0000  272.0000  298.0000    0.3079    2.0570         0    1.0000;
               23.0000  272.0000  268.0000    0.0558    0.2467         0    1.0000;
               24.0000  268.0000  280.0000    0.7363    4.6724         0    1.0000;
               25.0000  268.0000  281.0000    0.7698    4.8846         0    1.0000;
               26.0000  268.0000  282.0000    0.7573    4.8056         0    1.0000;
               27.0000  268.0000  291.0000    0.0738    0.0635         0    1.0000;
               28.0000  291.0000  269.0000    0.0383    0.0289         0    1.0000;
               29.0000  269.0000  288.0000    0.3661    2.4560         0    1.0000;
               30.0000  269.0000  289.0000    1.0593    5.4536         0    1.0000;
               31.0000  269.0000  290.0000    0.1567    1.6994         0    1.0000;
               32.0000  268.0000  283.0000    0.1301    1.3912         0    1.0000;
               33.0000  268.0000  284.0000    0.5448    3.4572         0    1.0000;
               34.0000  268.0000  285.0000    0.1543    1.6729         0    1.0000;
               35.0000  268.0000  286.0000    0.3849    2.5712         0    1.0000;
               36.0000  268.0000  287.0000    0.4412    2.9668         0    1.0000;
               37.0000  273.0000  299.0000    0.2355    0.9904         0    1.0000;
               38.0000  294.0000  300.0000         0    0.7500         0    0.9583;
               39.0000    1.0000    5.0000    0.0010    0.0060         0    1.0000;
               40.0000    2.0000    6.0000    0.0010    0.0090         0    1.0000;
               41.0000    2.0000    8.0000    0.0060    0.0270    0.0540    1.0000;
               42.0000    3.0000    7.0000         0    0.0030         0    1.0000;
               43.0000    3.0000   18.0000    0.0080    0.0690    0.1390    1.0000;
               44.0000    3.0000  129.0000    0.0010    0.0070         0    1.0000;
               45.0000    4.0000   16.0000    0.0020    0.0190    1.1270    1.0000;
               46.0000    5.0000    9.0000    0.0060    0.0290    0.0180    1.0000;
               47.0000    7.0000   12.0000    0.0010    0.0090    0.0700    1.0000;
               48.0000    7.0000  110.0000    0.0010    0.0070    0.0140    1.0000;
               49.0000    8.0000   11.0000    0.0130    0.0595    0.0330    1.0000;
               50.0000    8.0000   14.0000    0.0130    0.0420    0.0810    1.0000;
               51.0000    9.0000   11.0000    0.0060    0.0270    0.0130    1.0000;
               52.0000   11.0000   13.0000    0.0080    0.0340    0.0180    1.0000;
               53.0000   12.0000   20.0000    0.0020    0.0150    0.1180    1.0000;
               54.0000   13.0000   19.0000    0.0060    0.0340    0.0160    1.0000;
               55.0000   14.0000   15.0000    0.0140    0.0420    0.0970    1.0000;
               56.0000   15.0000   31.0000    0.0650    0.2480    0.1210    1.0000;
               57.0000   15.0000   74.0000    0.0990    0.2480    0.0350    1.0000;
               58.0000   15.0000   75.0000    0.0960    0.3630    0.0480    1.0000;
               59.0000   16.0000   36.0000    0.0020    0.0220    1.2800    1.0000;
               60.0000   18.0000   20.0000    0.0020    0.0180    0.0360    1.0000;
               61.0000   18.0000   72.0000    0.0130    0.0800    0.1510    1.0000;
               62.0000   19.0000   21.0000    0.0160    0.0330    0.0150    1.0000;
               63.0000   19.0000   26.0000    0.0690    0.1860    0.0980    1.0000;
               64.0000   20.0000   23.0000    0.0040    0.0340    0.2800    1.0000;
               65.0000   21.0000   22.0000    0.0520    0.1110    0.0500    1.0000;
               66.0000   22.0000   24.0000    0.0190    0.0390    0.0180    1.0000;
               67.0000   23.0000  231.0000    0.0070    0.0680    0.1340    1.0000;
               68.0000   24.0000   25.0000    0.0360    0.0710    0.0340    1.0000;
               69.0000   25.0000   26.0000    0.0450    0.1200    0.0650    1.0000;
               70.0000   25.0000  232.0000    0.0430    0.1300    0.0140    1.0000;
               71.0000   27.0000   28.0000         0    0.0630         0    1.0000;
               72.0000   27.0000   32.0000    0.0025    0.0120    0.0130    1.0000;
               73.0000   27.0000   34.0000    0.0060    0.0290    0.0200    1.0000;
               74.0000   27.0000   35.0000    0.0070    0.0430    0.0260    1.0000;
               75.0000   28.0000   36.0000    0.0010    0.0080    0.0420    1.0000;
               76.0000   29.0000   60.0000    0.0120    0.0600    0.0080    1.0000;
               77.0000   29.0000   63.0000    0.0060    0.0140    0.0020    1.0000;
               78.0000   29.0000   64.0000    0.0100    0.0290    0.0030    1.0000;
               79.0000   30.0000   73.0000    0.0040    0.0270    0.0430    1.0000;
               80.0000   31.0000   32.0000    0.0080    0.0470    0.0080    1.0000;
               81.0000   31.0000   34.0000    0.0220    0.0640    0.0070    1.0000;
               82.0000   31.0000   35.0000    0.0100    0.0360    0.0200    1.0000;
               83.0000   31.0000   43.0000    0.0170    0.0810    0.0480    1.0000;
               84.0000   31.0000   74.0000    0.1020    0.2540    0.0330    1.0000;
               85.0000   31.0000   75.0000    0.0470    0.1270    0.0160    1.0000;
               86.0000   32.0000   35.0000    0.0080    0.0370    0.0200    1.0000;
               87.0000   32.0000   37.0000    0.0320    0.0870    0.0400    1.0000;
               88.0000   33.0000   36.0000    0.0006    0.0064    0.4040    1.0000;
               89.0000   34.0000   42.0000    0.0260    0.1540    0.0220    1.0000;
               90.0000   35.0000   36.0000         0    0.0290         0    1.0000;
               91.0000   35.0000   43.0000    0.0650    0.1910    0.0200    1.0000;
               92.0000   35.0000   44.0000    0.0310    0.0890    0.0360    1.0000;
               93.0000   36.0000   40.0000    0.0020    0.0140    0.8060    1.0000;
               94.0000   37.0000   38.0000    0.0260    0.0720    0.0350    1.0000;
               95.0000   37.0000   42.0000    0.0950    0.2620    0.0320    1.0000;
               96.0000   37.0000   46.0000    0.0130    0.0390    0.0160    1.0000;
               97.0000   38.0000   41.0000    0.0270    0.0840    0.0390    1.0000;
               98.0000   38.0000   47.0000    0.0280    0.0840    0.0370    1.0000;
               99.0000   39.0000   52.0000    0.0070    0.0410    0.3120    1.0000;
              100.0000   39.0000   62.0000    0.0090    0.0540    0.4110    1.0000;
              101.0000   40.0000   68.0000    0.0050    0.0420    0.6900    1.0000;
              102.0000   41.0000   61.0000    0.0520    0.1450    0.0730    1.0000;
              103.0000   41.0000   92.0000    0.0430    0.1180    0.0130    1.0000;
              104.0000   42.0000   87.0000    0.0250    0.0620    0.0070    1.0000;
              105.0000   43.0000   44.0000    0.0310    0.0940    0.0430    1.0000;
              106.0000   44.0000   45.0000    0.0370    0.1090    0.0490    1.0000;
              107.0000   45.0000   48.0000    0.0270    0.0800    0.0360    1.0000;
              108.0000   46.0000   47.0000    0.0250    0.0730    0.0350    1.0000;
              109.0000   47.0000   48.0000    0.0350    0.1030    0.0470    1.0000;
              110.0000   48.0000   49.0000    0.0650    0.1690    0.0820    1.0000;
              111.0000   49.0000   50.0000    0.0460    0.0800    0.0360    1.0000;
              112.0000   49.0000   55.0000    0.1590    0.5370    0.0710    1.0000;
              113.0000   50.0000   51.0000    0.0090    0.0260    0.0050    1.0000;
              114.0000   51.0000   53.0000    0.0020    0.0130    0.0150    1.0000;
              115.0000   52.0000   54.0000    0.0090    0.0650    0.4850    1.0000;
              116.0000   54.0000   56.0000    0.0160    0.1050    0.2030    1.0000;
              117.0000   54.0000  123.0000    0.0010    0.0070    0.0130    1.0000;
              118.0000   55.0000  236.0000    0.0265    0.1720    0.0260    1.0000;
              119.0000   57.0000  190.0000    0.0510    0.2320    0.0280    1.0000;
              120.0000   57.0000   66.0000    0.0510    0.1570    0.0230    1.0000;
              121.0000   58.0000   59.0000    0.0320    0.1000    0.0620    1.0000;
              122.0000   58.0000  237.0000    0.0200    0.1234    0.0280    1.0000;
              123.0000   59.0000   60.0000    0.0360    0.1310    0.0680    1.0000;
              124.0000   59.0000   61.0000    0.0340    0.0990    0.0470    1.0000;
              125.0000   60.0000   64.0000    0.0180    0.0870    0.0110    1.0000;
              126.0000   60.0000  238.0000    0.0256    0.1930         0    1.0000;
              127.0000   61.0000   63.0000    0.0210    0.0570    0.0300    1.0000;
              128.0000   61.0000   66.0000    0.0180    0.0520    0.0180    1.0000;
              129.0000   62.0000   73.0000    0.0040    0.0270    0.0500    1.0000;
              130.0000   62.0000  240.0000    0.0286    0.2013    0.3790    1.0000;
              131.0000   63.0000   64.0000    0.0160    0.0430    0.0040    1.0000;
              132.0000   64.0000   65.0000    0.0010    0.0060    0.0070    1.0000;
              133.0000   64.0000   67.0000    0.0140    0.0700    0.0380    1.0000;
              134.0000   64.0000  239.0000    0.0891    0.2676    0.0290    1.0000;
              135.0000   64.0000  241.0000    0.0782    0.2127    0.0220    1.0000;
              136.0000   65.0000   66.0000    0.0060    0.0220    0.0110    1.0000;
              137.0000   65.0000   69.0000         0    0.0360         0    1.0000;
              138.0000   66.0000  190.0000    0.0990    0.3750    0.0510    1.0000;
              139.0000   67.0000  190.0000    0.0220    0.1070    0.0580    1.0000;
              140.0000   68.0000  173.0000    0.0035    0.0330    0.5300    1.0000;
              141.0000   68.0000  174.0000    0.0035    0.0330    0.5300    1.0000;
              142.0000   70.0000   71.0000    0.0080    0.0640    0.1280    1.0000;
              143.0000   71.0000   72.0000    0.0120    0.0930    0.1830    1.0000;
              144.0000   71.0000  234.0000    0.0060    0.0480    0.0920    1.0000;
              145.0000   74.0000   76.0000    0.0470    0.1190    0.0140    1.0000;
              146.0000   75.0000   77.0000    0.0320    0.1740    0.0240    1.0000;
              147.0000   76.0000   78.0000    0.1000    0.2530    0.0310    1.0000;
              148.0000   76.0000   79.0000    0.0220    0.0770    0.0390    1.0000;
              149.0000   77.0000   84.0000    0.0190    0.1440    0.0170    1.0000;
              150.0000   77.0000   86.0000    0.0170    0.0920    0.0120    1.0000;
              151.0000   78.0000   79.0000    0.2780    0.4270    0.0430    1.0000;
              152.0000   79.0000   82.0000    0.0220    0.0530    0.0070    1.0000;
              153.0000   79.0000   83.0000    0.0380    0.0920    0.0120    1.0000;
              154.0000   79.0000   84.0000    0.0480    0.1220    0.0150    1.0000;
              155.0000   80.0000   82.0000    0.0240    0.0640    0.0070    1.0000;
              156.0000   80.0000   83.0000    0.0340    0.1210    0.0150    1.0000;
              157.0000   81.0000   87.0000    0.0530    0.1350    0.0170    1.0000;
              158.0000   81.0000   88.0000    0.0020    0.0040    0.0020    1.0000;
              159.0000   81.0000   89.0000    0.0450    0.3540    0.0440    1.0000;
              160.0000   81.0000   90.0000    0.0500    0.1740    0.0220    1.0000;
              161.0000   82.0000   83.0000    0.0160    0.0380    0.0040    1.0000;
              162.0000   83.0000   85.0000    0.0430    0.0640    0.0270    1.0000;
              163.0000   84.0000   86.0000    0.0190    0.0620    0.0080    1.0000;
              164.0000   85.0000   88.0000    0.0760    0.1300    0.0440    1.0000;
              165.0000   85.0000  233.0000    0.0440    0.1240    0.0150    1.0000;
              166.0000   86.0000   87.0000    0.0120    0.0880    0.0110    1.0000;
              167.0000   86.0000   90.0000    0.1570    0.4000    0.0470    1.0000;
              168.0000   88.0000  235.0000    0.0740    0.2080    0.0260    1.0000;
              169.0000   89.0000   90.0000    0.0700    0.1840    0.0210    1.0000;
              170.0000   89.0000   92.0000    0.1000    0.2740    0.0310    1.0000;
              171.0000   89.0000   93.0000    0.1090    0.3930    0.0360    1.0000;
              172.0000   90.0000   91.0000    0.1420    0.4040    0.0500    1.0000;
              173.0000   91.0000   93.0000    0.0170    0.0420    0.0060    1.0000;
              174.0000   94.0000  101.0000    0.0036    0.0199    0.0040    1.0000;
              175.0000   95.0000   99.0000    0.0020    0.1049    0.0010    1.0000;
              176.0000   96.0000   97.0000    0.0001    0.0018    0.0170    1.0000;
              177.0000   97.0000   98.0000         0    0.0271         0    1.0000;
              178.0000   97.0000  245.0000         0    0.6163         0    1.0000;
              179.0000  245.0000   99.0000         0   -0.3697         0    1.0000;
              180.0000   97.0000  100.0000    0.0022    0.2915         0    1.0000;
              181.0000   98.0000   99.0000         0    0.0339         0    1.0000;
              182.0000   98.0000  100.0000         0    0.0582         0    1.0000;
              183.0000  101.0000  102.0000    0.0808    0.2344    0.0290    1.0000;
              184.0000  101.0000  104.0000    0.0965    0.3669    0.0540    1.0000;
              185.0000  102.0000  103.0000    0.0360    0.1076    0.1170    1.0000;
              186.0000  102.0000  104.0000    0.0476    0.1414    0.1490    1.0000;
              187.0000  104.0000  105.0000    0.0006    0.0197         0    1.0000;
              188.0000  105.0000  106.0000    0.0059    0.0405    0.2500    1.0000;
              189.0000  105.0000  108.0000    0.0115    0.1106    0.1850    1.0000;
              190.0000  105.0000  111.0000    0.0198    0.1688    0.3210    1.0000;
              191.0000  105.0000  136.0000    0.0050    0.0500    0.3300    1.0000;
              192.0000  105.0000  137.0000    0.0077    0.0538    0.3350    1.0000;
              193.0000  105.0000  148.0000    0.0165    0.1157    0.1710    1.0000;
              194.0000  106.0000  107.0000    0.0059    0.0577    0.0950    1.0000;
              195.0000  106.0000  113.0000    0.0049    0.0336    0.2080    1.0000;
              196.0000  106.0000  147.0000    0.0059    0.0577    0.0950    1.0000;
              197.0000  107.0000  109.0000    0.0078    0.0773    0.1260    1.0000;
              198.0000  107.0000  112.0000    0.0026    0.0193    0.0300    1.0000;
              199.0000  108.0000  109.0000    0.0076    0.0752    0.1220    1.0000;
              200.0000  108.0000  112.0000    0.0021    0.0186    0.0300    1.0000;
              201.0000  109.0000  111.0000    0.0016    0.0164    0.0260    1.0000;
...